!-Generator IDFEditor 1.44
!-Option OriginalOrderTop UseSpecialFormat

!-NOTE: All comments with '!-' are ignored by the IDFEditor and are generated automatically.
!-      Use '!' comments if they need to be retained when using the IDFEditor.

Version,8.1;

ProgramControl,
    1;                       !- Number of Threads Allowed

SimulationControl,
    Yes,                     !- Do Zone Sizing Calculation
    No,                      !- Do System Sizing Calculation
    Yes,                     !- Do Plant Sizing Calculation
    No,                      !- Run Simulation for Sizing Periods
    Yes;                     !- Run Simulation for Weather File Run Periods

Building,
    Chicago Midway Ap IL 3141 sqft ,  !- Name
    315,                     !- North Axis {deg}
    Urban,                   !- Terrain
    0.05,                    !- Loads Convergence Tolerance Value
    0.05,                    !- Temperature Convergence Tolerance Value {deltaC}
    FullExterior,            !- Solar Distribution
    50,                      !- Maximum Number of Warmup Days
    ;                        !- Minimum Number of Warmup Days

ShadowCalculation,
    AverageOverDaysInFrequency,  !- Calculation Method
    20,                      !- Calculation Frequency
    200;                     !- Maximum Figures in Shadow Overlap Calculations

Output:Diagnostics,
    DisplayAdvancedReportVariables;  !- Key 1

SurfaceConvectionAlgorithm:Inside,TARP;
SurfaceConvectionAlgorithm:Outside,DOE-2;
HeatBalanceAlgorithm,ConductionTransferFunction,200;
ZoneCapacitanceMultiplier:ResearchSpecial,1,15,1,;
Timestep,1;

ConvergenceLimits,
    10,                      !- Minimum System Timestep {minutes}
    20;                      !- Maximum HVAC Iterations

Site:Location,
    Chicago Midway Ap IL,    !- Name
    41.78,                   !- Latitude {deg}
    -87.75,                  !- Longitude {deg}
    -7,                      !- Time Zone {hr}
    185.99999376000002;      !- Elevation {m}

Site:WeatherStation,
    9.99744,                 !- Wind Sensor Height Above Ground {m}
    0.15,                    !- Wind Speed Profile Exponent
    269.99184,               !- Wind Speed Profile Boundary Layer Thickness {m}
    1.5;                     !- Air Temperature Sensor Height Above Ground {m}

Site:HeightVariation,
    0.25,                    !- Wind Speed Profile Exponent
    358.44480000000004,      !- Wind Speed Profile Boundary Layer Thickness {m}
    0.0065;                  !- Air Temperature Gradient Coefficient {K/m}

Site:GroundTemperature:BuildingSurface,5.770697763413561,3.4090899613861185,3.219963939370321,4.340667511090398,8.8396678464236,13.317709929618376,17.199933090152733,19.65922598101855,19.868156420033294,17.867935004034273,14.084710813403976,9.744036821935632;
Site:GroundTemperature:Deep,11.383333333333335,11.383333333333335,11.383333333333335,11.383333333333335,11.383333333333335,11.383333333333335,11.383333333333335,11.383333333333335,11.383333333333335,11.383333333333335,11.383333333333335,11.383333333333335;

Site:WaterMainsTemperature,
    Correlation,             !- Calculation Method
    ,                        !- Temperature Schedule Name
    11.383333333333335,      !- Annual Average Outdoor Air Temperature {C}
    30.877777777777776;      !- Maximum Difference In Monthly Average Outdoor Air Temperatures {deltaC}

RunPeriod,
    Chicago Midway Ap IL 3141 sqft,  !- Name
    1,                       !- Begin Month
    1,                       !- Begin Day of Month
    12,                      !- End Month
    31,                      !- End Day of Month
    Tuesday,                 !- Day of Week for Start Day
    No,                      !- Use Weather File Holidays and Special Days
    Yes,                     !- Use Weather File Daylight Saving Period
    No,                      !- Apply Weekend Holiday Rule
    Yes,                     !- Use Weather File Rain Indicators
    Yes;                     !- Use Weather File Snow Indicators

SizingPeriod:WeatherFileDays,
    Plant DD,                !- Name
    1,                       !- Begin Month
    1,                       !- Begin Day of Month
    1,                       !- End Month
    1,                       !- End Day of Month
    Tuesday,                 !- Day of Week for Start Day
    Yes,                     !- Use Weather File Daylight Saving Period
    No;                      !- Use Weather File Rain and Snow Indicators

Sizing:Parameters,
    1,                       !- Heating Sizing Factor
    1,                       !- Cooling Sizing Factor
    1;                       !- Timesteps in Averaging Window

RunPeriodControl:DaylightSavingTime,
    April 7,                 !- Start Date
    October 26;              !- End Date

RunPeriodControl:SpecialDays,
    MayVacationWeekdays,     !- Name
    5/27,                    !- Start Date
    2,                       !- Duration {days}
    CustomDay1;              !- Special Day Type

RunPeriodControl:SpecialDays,
    AugVacationWeekdays,     !- Name
    8/12,                    !- Start Date
    5,                       !- Duration {days}
    CustomDay1;              !- Special Day Type

RunPeriodControl:SpecialDays,
    DecVacationWeekdays,     !- Name
    12/23,                   !- Start Date
    3,                       !- Duration {days}
    CustomDay1;              !- Special Day Type

RunPeriodControl:SpecialDays,
    MayVacationWeekends,     !- Name
    5/26,                    !- Start Date
    1,                       !- Duration {days}
    CustomDay2;              !- Special Day Type

RunPeriodControl:SpecialDays,
    AugVacationWeekends,     !- Name
    8/17,                    !- Start Date
    2,                       !- Duration {days}
    CustomDay2;              !- Special Day Type

RunPeriodControl:SpecialDays,
    DecVacationWeekends,     !- Name
    12/22,                   !- Start Date
    1,                       !- Duration {days}
    CustomDay2;              !- Special Day Type

ScheduleTypeLimits,
    Multiplier,              !- Name
    ,                        !- Lower Limit Value
    ,                        !- Upper Limit Value
    Continuous;              !- Numeric Type

ScheduleTypeLimits,
    Fraction,                !- Name
    0,                       !- Lower Limit Value
    1,                       !- Upper Limit Value
    Continuous;              !- Numeric Type

ScheduleTypeLimits,
    On/Off,                  !- Name
    0,                       !- Lower Limit Value
    1,                       !- Upper Limit Value
    Discrete;                !- Numeric Type

ScheduleTypeLimits,
    Temperature,             !- Name
    -60,                     !- Lower Limit Value
    200,                     !- Upper Limit Value
    Continuous;              !- Numeric Type

ScheduleTypeLimits,
    Month,                   !- Name
    1,                       !- Lower Limit Value
    12,                      !- Upper Limit Value
    Discrete;                !- Numeric Type

Schedule:Constant,AlwaysOff,FRACTION,0;
Schedule:Constant,AlwaysOn,FRACTION,1;

Schedule:Day:Hourly,
    BathExhaustDay,          !- Name
    FRACTION,                !- Schedule Type Limits Name
    0,                       !- Hour 1
    0,                       !- Hour 2
    0,                       !- Hour 3
    0,                       !- Hour 4
    0,                       !- Hour 5
    0,                       !- Hour 6
    1,                       !- Hour 7
    0,                       !- Hour 8
    0,                       !- Hour 9
    0,                       !- Hour 10
    0,                       !- Hour 11
    0,                       !- Hour 12
    0,                       !- Hour 13
    0,                       !- Hour 14
    0,                       !- Hour 15
    0,                       !- Hour 16
    0,                       !- Hour 17
    0,                       !- Hour 18
    0,                       !- Hour 19
    0,                       !- Hour 20
    0,                       !- Hour 21
    0,                       !- Hour 22
    0,                       !- Hour 23
    0;                       !- Hour 24

Schedule:Week:Compact,
    BathExhaustWk,           !- Name
    For: Weekdays,           !- DayType List 1
    BathExhaustDay,          !- Schedule:Day Name 1
    For: CustomDay1,         !- DayType List 2
    BathExhaustDay,          !- Schedule:Day Name 2
    For: CustomDay2,         !- DayType List 3
    BathExhaustDay,          !- Schedule:Day Name 3
    For: AllOtherDays,       !- DayType List 4
    BathExhaustDay;          !- Schedule:Day Name 4

Schedule:Year,
    BathExhaust,             !- Name
    FRACTION,                !- Schedule Type Limits Name
    BathExhaustWk,           !- Schedule:Week Name 1
    1,                       !- Start Month 1
    1,                       !- Start Day 1
    12,                      !- End Month 1
    31;                      !- End Day 1

Schedule:Constant,BathLatSchedule,FRACTION,0;

Schedule:Day:Hourly,
    BathsDayMult0,           !- Name
    FRACTION,                !- Schedule Type Limits Name
    0,                       !- Hour 1
    0,                       !- Hour 2
    0,                       !- Hour 3
    0,                       !- Hour 4
    0,                       !- Hour 5
    0,                       !- Hour 6
    0,                       !- Hour 7
    0,                       !- Hour 8
    0,                       !- Hour 9
    0,                       !- Hour 10
    0,                       !- Hour 11
    0,                       !- Hour 12
    0,                       !- Hour 13
    0,                       !- Hour 14
    0,                       !- Hour 15
    0,                       !- Hour 16
    0,                       !- Hour 17
    0,                       !- Hour 18
    0,                       !- Hour 19
    0,                       !- Hour 20
    0,                       !- Hour 21
    0,                       !- Hour 22
    0,                       !- Hour 23
    0;                       !- Hour 24

Schedule:Day:Hourly,
    BathsDayMult1,           !- Name
    FRACTION,                !- Schedule Type Limits Name
    0.0571428571428571,      !- Hour 1
    0.0285714285714286,      !- Hour 2
    0.0285714285714286,      !- Hour 3
    0.0285714285714286,      !- Hour 4
    0.0571428571428571,      !- Hour 5
    0.1357142857142857,      !- Hour 6
    0.3285714285714286,      !- Hour 7
    0.4142857142857143,      !- Hour 8
    0.4714285714285714,      !- Hour 9
    0.4142857142857143,      !- Hour 10
    0.3285714285714286,      !- Hour 11
    0.2500000000000001,      !- Hour 12
    0.2214285714285714,      !- Hour 13
    0.1642857142857143,      !- Hour 14
    0.1642857142857143,      !- Hour 15
    0.1642857142857143,      !- Hour 16
    0.2785714285714285,      !- Hour 17
    0.3285714285714286,      !- Hour 18
    0.5499999999999999,      !- Hour 19
    0.7142857142857143,      !- Hour 20
    0.7142857142857143,      !- Hour 21
    0.5499999999999999,      !- Hour 22
    0.4714285714285714,      !- Hour 23
    0.2785714285714285;      !- Hour 24

Schedule:Day:Hourly,
    BathsDayMult2,           !- Name
    FRACTION,                !- Schedule Type Limits Name
    0.08,                    !- Hour 1
    0.04,                    !- Hour 2
    0.04,                    !- Hour 3
    0.04,                    !- Hour 4
    0.08,                    !- Hour 5
    0.19,                    !- Hour 6
    0.46,                    !- Hour 7
    0.58,                    !- Hour 8
    0.66,                    !- Hour 9
    0.58,                    !- Hour 10
    0.46,                    !- Hour 11
    0.3500000000000001,      !- Hour 12
    0.31,                    !- Hour 13
    0.23,                    !- Hour 14
    0.23,                    !- Hour 15
    0.23,                    !- Hour 16
    0.3899999999999999,      !- Hour 17
    0.46,                    !- Hour 18
    0.7699999999999999,      !- Hour 19
    1,                       !- Hour 20
    1,                       !- Hour 21
    0.7699999999999999,      !- Hour 22
    0.66,                    !- Hour 23
    0.3899999999999999;      !- Hour 24

Schedule:Week:Compact,
    BathsWk,                 !- Name
    For: Weekdays,           !- DayType List 1
    BathsDayMult1,           !- Schedule:Day Name 1
    For: CustomDay1,         !- DayType List 2
    BathsDayMult0,           !- Schedule:Day Name 2
    For: CustomDay2,         !- DayType List 3
    BathsDayMult0,           !- Schedule:Day Name 3
    For: AllOtherDays,       !- DayType List 4
    BathsDayMult2;           !- Schedule:Day Name 4

Schedule:Year,
    Baths,                   !- Name
    FRACTION,                !- Schedule Type Limits Name
    BathsWk,                 !- Schedule:Week Name 1
    1,                       !- Start Month 1
    1,                       !- Start Day 1
    12,                      !- End Month 1
    31;                      !- End Day 1

Schedule:Constant,BathSensSchedule,FRACTION,1;

Schedule:Day:Hourly,
    CeilingFanWeekday,       !- Name
    ON/OFF,                  !- Schedule Type Limits Name
    1,                       !- Hour 1
    1,                       !- Hour 2
    1,                       !- Hour 3
    1,                       !- Hour 4
    1,                       !- Hour 5
    1,                       !- Hour 6
    1,                       !- Hour 7
    1,                       !- Hour 8
    1,                       !- Hour 9
    1,                       !- Hour 10
    1,                       !- Hour 11
    1,                       !- Hour 12
    1,                       !- Hour 13
    1,                       !- Hour 14
    1,                       !- Hour 15
    1,                       !- Hour 16
    1,                       !- Hour 17
    1,                       !- Hour 18
    1,                       !- Hour 19
    1,                       !- Hour 20
    1,                       !- Hour 21
    1,                       !- Hour 22
    1,                       !- Hour 23
    1;                       !- Hour 24

Schedule:Day:Hourly,
    CeilingFanWeekend,       !- Name
    ON/OFF,                  !- Schedule Type Limits Name
    1,                       !- Hour 1
    1,                       !- Hour 2
    1,                       !- Hour 3
    1,                       !- Hour 4
    1,                       !- Hour 5
    1,                       !- Hour 6
    1,                       !- Hour 7
    1,                       !- Hour 8
    1,                       !- Hour 9
    1,                       !- Hour 10
    1,                       !- Hour 11
    1,                       !- Hour 12
    1,                       !- Hour 13
    1,                       !- Hour 14
    1,                       !- Hour 15
    1,                       !- Hour 16
    1,                       !- Hour 17
    1,                       !- Hour 18
    1,                       !- Hour 19
    1,                       !- Hour 20
    1,                       !- Hour 21
    1,                       !- Hour 22
    1,                       !- Hour 23
    1;                       !- Hour 24

Schedule:Week:Compact,
    CeilingFanWeek,          !- Name
    For: Weekdays,           !- DayType List 1
    CeilingFanWeekday,       !- Schedule:Day Name 1
    For: CustomDay1,         !- DayType List 2
    CeilingFanWeekday,       !- Schedule:Day Name 2
    For: CustomDay2,         !- DayType List 3
    CeilingFanWeekend,       !- Schedule:Day Name 3
    For: AllOtherDays,       !- DayType List 4
    CeilingFanWeekend;       !- Schedule:Day Name 4

Schedule:Year,
    CeilingFan,              !- Name
    ON/OFF,                  !- Schedule Type Limits Name
    CeilingFanWeek,          !- Schedule:Week Name 1
    1,                       !- Start Month 1
    1,                       !- Start Day 1
    12,                      !- End Month 1
    31;                      !- End Day 1

Schedule:Constant,CeilingFansMaster,ON/OFF,1;

Schedule:Day:Hourly,
    ClothesDryerDayMult0,    !- Name
    FRACTION,                !- Schedule Type Limits Name
    0.1009125067096082,      !- Hour 1
    0.0605475040257649,      !- Hour 2
    0.0403650026838433,      !- Hour 3
    0.0201825013419216,      !- Hour 4
    0.0403650026838433,      !- Hour 5
    0.0605475040257649,      !- Hour 6
    0.1614600107353731,      !- Hour 7
    0.3229200214707461,      !- Hour 8
    0.4843800322061192,      !- Hour 9
    0.6862050456253356,      !- Hour 10
    0.7871175523349436,      !- Hour 11
    0.8173913043478261,      !- Hour 12
    0.7467525496511005,      !- Hour 13
    0.6761137949543747,      !- Hour 14
    0.5752012882447666,      !- Hour 15
    0.6155662909286099,      !- Hour 16
    0.5550187869028449,      !- Hour 17
    0.5449275362318842,      !- Hour 18
    0.5146537842190015,      !- Hour 19
    0.5146537842190015,      !- Hour 20
    0.5247450348899625,      !- Hour 21
    0.5449275362318842,      !- Hour 22
    0.444015029522276,       !- Hour 23
    0.2421900161030596;      !- Hour 24

Schedule:Day:Hourly,
    ClothesDryerDayMult1,    !- Name
    FRACTION,                !- Schedule Type Limits Name
    0,                       !- Hour 1
    0,                       !- Hour 2
    0,                       !- Hour 3
    0,                       !- Hour 4
    0,                       !- Hour 5
    0,                       !- Hour 6
    0,                       !- Hour 7
    0,                       !- Hour 8
    0,                       !- Hour 9
    0,                       !- Hour 10
    0,                       !- Hour 11
    0,                       !- Hour 12
    0,                       !- Hour 13
    0,                       !- Hour 14
    0,                       !- Hour 15
    0,                       !- Hour 16
    0,                       !- Hour 17
    0,                       !- Hour 18
    0,                       !- Hour 19
    0,                       !- Hour 20
    0,                       !- Hour 21
    0,                       !- Hour 22
    0,                       !- Hour 23
    0;                       !- Hour 24

Schedule:Day:Hourly,
    ClothesDryerDayMult2,    !- Name
    FRACTION,                !- Schedule Type Limits Name
    0.1234567901234568,      !- Hour 1
    0.0740740740740741,      !- Hour 2
    0.0493827160493827,      !- Hour 3
    0.0246913580246914,      !- Hour 4
    0.0493827160493827,      !- Hour 5
    0.0740740740740741,      !- Hour 6
    0.1975308641975309,      !- Hour 7
    0.3950617283950617,      !- Hour 8
    0.5925925925925926,      !- Hour 9
    0.8395061728395062,      !- Hour 10
    0.9629629629629629,      !- Hour 11
    1,                       !- Hour 12
    0.9135802469135804,      !- Hour 13
    0.8271604938271605,      !- Hour 14
    0.7037037037037038,      !- Hour 15
    0.7530864197530865,      !- Hour 16
    0.6790123456790124,      !- Hour 17
    0.6666666666666667,      !- Hour 18
    0.6296296296296295,      !- Hour 19
    0.6296296296296295,      !- Hour 20
    0.6419753086419754,      !- Hour 21
    0.6666666666666667,      !- Hour 22
    0.54320987654321,        !- Hour 23
    0.2962962962962963;      !- Hour 24

Schedule:Week:Compact,
    ClothesDryerWk,          !- Name
    For: Weekdays,           !- DayType List 1
    ClothesDryerDayMult0,    !- Schedule:Day Name 1
    For: CustomDay1,         !- DayType List 2
    ClothesDryerDayMult1,    !- Schedule:Day Name 2
    For: CustomDay2,         !- DayType List 3
    ClothesDryerDayMult1,    !- Schedule:Day Name 3
    For: AllOtherDays,       !- DayType List 4
    ClothesDryerDayMult2;    !- Schedule:Day Name 4

Schedule:Year,
    ClothesDryer,            !- Name
    FRACTION,                !- Schedule Type Limits Name
    ClothesDryerWk,          !- Schedule:Week Name 1
    1,                       !- Start Month 1
    1,                       !- Start Day 1
    12,                      !- End Month 1
    31;                      !- End Day 1

Schedule:Day:Hourly,
    ClothesDryerExhaustDay,  !- Name
    FRACTION,                !- Schedule Type Limits Name
    0,                       !- Hour 1
    0,                       !- Hour 2
    0,                       !- Hour 3
    0,                       !- Hour 4
    0,                       !- Hour 5
    0,                       !- Hour 6
    0,                       !- Hour 7
    0,                       !- Hour 8
    0,                       !- Hour 9
    0,                       !- Hour 10
    1,                       !- Hour 11
    0,                       !- Hour 12
    0,                       !- Hour 13
    0,                       !- Hour 14
    0,                       !- Hour 15
    0,                       !- Hour 16
    0,                       !- Hour 17
    0,                       !- Hour 18
    0,                       !- Hour 19
    0,                       !- Hour 20
    0,                       !- Hour 21
    0,                       !- Hour 22
    0,                       !- Hour 23
    0;                       !- Hour 24

Schedule:Week:Compact,
    ClothesDryerExhaustWk,   !- Name
    For: Weekdays,           !- DayType List 1
    ClothesDryerExhaustDay,  !- Schedule:Day Name 1
    For: CustomDay1,         !- DayType List 2
    ClothesDryerExhaustDay,  !- Schedule:Day Name 2
    For: CustomDay2,         !- DayType List 3
    ClothesDryerExhaustDay,  !- Schedule:Day Name 3
    For: AllOtherDays,       !- DayType List 4
    ClothesDryerExhaustDay;  !- Schedule:Day Name 4

Schedule:Year,
    ClothesDryerExhaust,     !- Name
    FRACTION,                !- Schedule Type Limits Name
    ClothesDryerExhaustWk,   !- Schedule:Week Name 1
    1,                       !- Start Month 1
    1,                       !- Start Day 1
    12,                      !- End Month 1
    31;                      !- End Day 1

Schedule:Day:Hourly,
    ClothesWasherDayMult0,   !- Name
    FRACTION,                !- Schedule Type Limits Name
    0.0855409504550051,      !- Hour 1
    0.0665318503538928,      !- Hour 2
    0.0380182002022245,      !- Hour 3
    0.0380182002022245,      !- Hour 4
    0.0665318503538928,      !- Hour 5
    0.1045500505561173,      !- Hour 6
    0.2091001011122346,      !- Hour 7
    0.4657229524772498,      !- Hour 8
    0.6938321536905966,      !- Hour 9
    0.8173913043478261,      !- Hour 10
    0.7983822042467141,      !- Hour 11
    0.7128412537917088,      !- Hour 12
    0.63680485338726,        !- Hour 13
    0.570273003033367,       !- Hour 14
    0.4657229524772498,      !- Hour 15
    0.4942366026289182,      !- Hour 16
    0.4752275025278059,      !- Hour 17
    0.4657229524772498,      !- Hour 18
    0.4657229524772498,      !- Hour 19
    0.4657229524772498,      !- Hour 20
    0.4657229524772498,      !- Hour 21
    0.4467138523761376,      !- Hour 22
    0.3041456016177958,      !- Hour 23
    0.161577350859454;       !- Hour 24

Schedule:Day:Hourly,
    ClothesWasherDayMult1,   !- Name
    FRACTION,                !- Schedule Type Limits Name
    0.1046511627906977,      !- Hour 1
    0.0813953488372093,      !- Hour 2
    0.0465116279069768,      !- Hour 3
    0.0465116279069768,      !- Hour 4
    0.0813953488372093,      !- Hour 5
    0.1279069767441861,      !- Hour 6
    0.2558139534883722,      !- Hour 7
    0.5697674418604651,      !- Hour 8
    0.8488372093023256,      !- Hour 9
    1,                       !- Hour 10
    0.9767441860465118,      !- Hour 11
    0.872093023255814,       !- Hour 12
    0.7790697674418606,      !- Hour 13
    0.6976744186046511,      !- Hour 14
    0.5697674418604651,      !- Hour 15
    0.6046511627906979,      !- Hour 16
    0.5813953488372093,      !- Hour 17
    0.5697674418604651,      !- Hour 18
    0.5697674418604651,      !- Hour 19
    0.5697674418604651,      !- Hour 20
    0.5697674418604651,      !- Hour 21
    0.5465116279069768,      !- Hour 22
    0.372093023255814,       !- Hour 23
    0.1976744186046512;      !- Hour 24

Schedule:Day:Hourly,
    ClothesWasherDayMult2,   !- Name
    FRACTION,                !- Schedule Type Limits Name
    0,                       !- Hour 1
    0,                       !- Hour 2
    0,                       !- Hour 3
    0,                       !- Hour 4
    0,                       !- Hour 5
    0,                       !- Hour 6
    0,                       !- Hour 7
    0,                       !- Hour 8
    0,                       !- Hour 9
    0,                       !- Hour 10
    0,                       !- Hour 11
    0,                       !- Hour 12
    0,                       !- Hour 13
    0,                       !- Hour 14
    0,                       !- Hour 15
    0,                       !- Hour 16
    0,                       !- Hour 17
    0,                       !- Hour 18
    0,                       !- Hour 19
    0,                       !- Hour 20
    0,                       !- Hour 21
    0,                       !- Hour 22
    0,                       !- Hour 23
    0;                       !- Hour 24

Schedule:Week:Compact,
    ClothesWasherWk,         !- Name
    For: Weekdays,           !- DayType List 1
    ClothesWasherDayMult0,   !- Schedule:Day Name 1
    For: CustomDay1,         !- DayType List 2
    ClothesWasherDayMult2,   !- Schedule:Day Name 2
    For: CustomDay2,         !- DayType List 3
    ClothesWasherDayMult2,   !- Schedule:Day Name 3
    For: AllOtherDays,       !- DayType List 4
    ClothesWasherDayMult1;   !- Schedule:Day Name 4

Schedule:Year,
    ClothesWasher,           !- Name
    FRACTION,                !- Schedule Type Limits Name
    ClothesWasherWk,         !- Schedule:Week Name 1
    1,                       !- Start Month 1
    1,                       !- Start Day 1
    12,                      !- End Month 1
    31;                      !- End Day 1

Schedule:Day:Hourly,
    CookingRangeDay01,       !- Name
    FRACTION,                !- Schedule Type Limits Name
    0.0466666666666667,      !- Hour 1
    0.0466666666666667,      !- Hour 2
    0.0266666666666667,      !- Hour 3
    0.0266666666666667,      !- Hour 4
    0.0466666666666667,      !- Hour 5
    0.0733333333333333,      !- Hour 6
    0.1666666666666667,      !- Hour 7
    0.28,                    !- Hour 8
    0.3066666666666666,      !- Hour 9
    0.32,                    !- Hour 10
    0.28,                    !- Hour 11
    0.3333333333333334,      !- Hour 12
    0.38,                    !- Hour 13
    0.3066666666666666,      !- Hour 14
    0.38,                    !- Hour 15
    0.2933333333333334,      !- Hour 16
    0.6133333333333333,      !- Hour 17
    1,                       !- Hour 18
    0.7799999999999999,      !- Hour 19
    0.3999999999999999,      !- Hour 20
    0.2333333333333334,      !- Hour 21
    0.1666666666666667,      !- Hour 22
    0.1066666666666667,      !- Hour 23
    0.0733333333333333;      !- Hour 24

Schedule:Day:Hourly,
    CookingRangeDay02,       !- Name
    FRACTION,                !- Schedule Type Limits Name
    0.0466666666666667,      !- Hour 1
    0.0466666666666667,      !- Hour 2
    0.0266666666666667,      !- Hour 3
    0.0266666666666667,      !- Hour 4
    0.0466666666666667,      !- Hour 5
    0.0733333333333333,      !- Hour 6
    0.1666666666666667,      !- Hour 7
    0.28,                    !- Hour 8
    0.3066666666666666,      !- Hour 9
    0.32,                    !- Hour 10
    0.28,                    !- Hour 11
    0.3333333333333334,      !- Hour 12
    0.38,                    !- Hour 13
    0.3066666666666666,      !- Hour 14
    0.38,                    !- Hour 15
    0.2933333333333334,      !- Hour 16
    0.6133333333333333,      !- Hour 17
    1,                       !- Hour 18
    0.7799999999999999,      !- Hour 19
    0.3999999999999999,      !- Hour 20
    0.2333333333333334,      !- Hour 21
    0.1666666666666667,      !- Hour 22
    0.1066666666666667,      !- Hour 23
    0.0733333333333333;      !- Hour 24

Schedule:Day:Hourly,
    CookingRangeDay03,       !- Name
    FRACTION,                !- Schedule Type Limits Name
    0.0421573989668794,      !- Hour 1
    0.0421573989668794,      !- Hour 2
    0.0240899422667882,      !- Hour 3
    0.0240899422667882,      !- Hour 4
    0.0421573989668794,      !- Hour 5
    0.0662473412336676,      !- Hour 6
    0.1505621391674263,      !- Hour 7
    0.2529443938012762,      !- Hour 8
    0.2770343360680644,      !- Hour 9
    0.2890793072014585,      !- Hour 10
    0.2529443938012762,      !- Hour 11
    0.3011242783348527,      !- Hour 12
    0.343281677301732,       !- Hour 13
    0.2770343360680644,      !- Hour 14
    0.343281677301732,       !- Hour 15
    0.2649893649346703,      !- Hour 16
    0.5540686721361289,      !- Hour 17
    0.9033728350045579,      !- Hour 18
    0.7046308113035551,      !- Hour 19
    0.3613491340018232,      !- Hour 20
    0.2107869948343968,      !- Hour 21
    0.1505621391674263,      !- Hour 22
    0.0963597690671528,      !- Hour 23
    0.0662473412336676;      !- Hour 24

Schedule:Day:Hourly,
    CookingRangeDay04,       !- Name